224

C         15.04339       10.03140        7.50173
C         15.73709        8.82840        7.50130
C         17.12162        8.80936        7.50084
C         17.86086       10.01966        7.50079
C         19.29529       10.03203        7.50035
C         20.04309        8.83829        7.49995
C         21.41688        8.83727        7.49961
C         22.15387       10.03953        7.49966
C         23.58441       10.04115        7.49942
C         24.32509        8.84138        7.49913
C         25.69802        8.84182        7.49902
C         26.43739       10.04211        7.49917
C         27.86713       10.04233        7.49917
C         28.60696        8.84227        7.49903
C         29.97975        8.84249        7.49911
C         30.71983       10.04232        7.49931
C         32.14941       10.04237        7.49944
C         32.88958        8.84253        7.49938
C         34.26243        8.84263        7.49951
C         35.00250       10.04255        7.49971
C         36.43216       10.04241        7.49982
C         37.17225        8.84244        7.49975
C         38.54513        8.84245        7.49982
C         39.28519       10.04245        7.49999
C         40.71490       10.04247        7.50003
C         41.45501        8.84250        7.49989
C         42.82789        8.84255        7.49990
C         43.56794       10.04253        7.50004
C         44.99760       10.04273        7.50004
C         45.73772        8.84284        7.49981
C         47.11058        8.84281        7.49978
C         47.85070       10.04267        7.49994
C         49.28030       10.04269        7.49987
C         50.02044        8.84290        7.49957
C         51.39324        8.84276        7.49946
C         52.13301       10.04286        7.49964
C         53.56276       10.04273        7.49948
C         54.30221        8.84248        7.49908
C         55.67514        8.84213        7.49886
C         56.41575       10.04195        7.49904
C         57.84630       10.04043        7.49876
C         58.58338        8.83823        7.49823
C         59.95717        8.83935        7.49790
C         60.70488       10.03316        7.49807
C         62.13931       10.02090        7.49770
C         62.87866        8.81066        7.49709
C         64.26319        8.82980        7.49671
C         64.95680       10.03285        7.49694
C         14.95236       12.49928        7.50217
C         15.73763       11.23359        7.50168
C         17.15588       11.25920        7.50122
C         17.87232       12.49938        7.50119
C         19.29116       12.49944        7.50075
C         20.00615       11.26423        7.50036
C         21.43908       11.26786        7.50000
C         22.15314       12.49955        7.50004
C         23.57816       12.49960        7.49979
C         24.29393       11.27079        7.49951
C         25.72618       11.27089        7.49939
C         26.43993       12.49970        7.49951
C         27.86423       12.49974        7.49949
C         28.57767       11.27100        7.49935
C         30.00933       11.27108        7.49941
C         30.72249       12.49982        7.49961
C         32.14659       12.49986        7.49972
C         32.85991       11.27115        7.49964
C         34.29160       11.27117        7.49978
C         35.00491       12.49992        7.49997
N         36.42914       12.49994        7.50009
B         37.14267       11.27126        7.50001
N         38.57445       11.27123        7.50009
B         39.28786       12.50000        7.50028
C         40.71214       12.50002        7.50033
C         41.42559       11.27128        7.50019
C         42.85737       11.27136        7.50022
C         43.57086       12.50007        7.50039
C         44.99509       12.50009        7.50041
C         45.70845       11.27138        7.50021
C         47.14015       11.27141        7.50018
C         47.85340       12.50016        7.50038
C         49.27751       12.50019        7.50033
C         49.99073       11.27149        7.50007
C         51.42240       11.27149        7.49997
C         52.13576       12.50027        7.50019
C         53.56007       12.50031        7.50007
C         54.27389       11.27155        7.49968
C         55.70615       11.27154        7.49948
C         56.42184       12.50040        7.49970
C         57.84685       12.50045        7.49947
C         58.56100       11.26882        7.49895
C         59.99393       11.26531        7.49863
C         60.70884       12.50057        7.49886
C         62.12768       12.50062        7.49852
C         62.84420       11.26049        7.49792
C         64.26246       11.23498        7.49755
C         65.04764       12.50073        7.49777
C         15.04320       14.96715        7.50253
C         15.73754       13.76503        7.50209
C         17.15579       13.73951        7.50161
C         17.86068       14.97911        7.50158
C         19.29511       14.96685        7.50111
C         20.00607       13.73470        7.50074
C         21.43900       13.73118        7.50036
C         22.15369       14.95958        7.50036
C         23.58424       14.95805        7.50010
C         24.29385       13.72847        7.49985
C         25.72610       13.72846        7.49971
C         26.43724       14.95728        7.49980
C         27.86698       14.95716        7.49977
C         28.57759       13.72852        7.49964
C         30.00926       13.72853        7.49970
C         30.71970       14.95732        7.49987
C         32.14929       14.95734        7.49999
C         32.85985       13.72860        7.49991
C         34.29154       13.72864        7.50005
C         35.00240       14.95728        7.50025
C         36.43206       14.95748        7.50037
B         37.14262       13.72865        7.50028
N         38.57440       13.72873        7.50038
C         39.28509       14.95754        7.50057
C         40.71481       14.95757        7.50065
C         41.42554       13.72879        7.50051
C         42.85732       13.72874        7.50056
C         43.56783       14.95760        7.50074
C         44.99749       14.95746        7.50079
C         45.70840       13.72884        7.50060
C         47.14008       13.72887        7.50061
C         47.85058       14.95764        7.50082
C         49.28017       14.95769        7.50083
C         49.99067       13.72893        7.50057
C         51.42233       13.72900        7.50052
C         52.13287       14.95768        7.50076
C         53.56260       14.95789        7.50069
C         54.27382       13.72912        7.50030
C         55.70607       13.72922        7.50015
C         56.41558       14.95886        7.50041
C         57.84613       14.96048        7.50020
C         58.56091       13.73214        7.49970
C         59.99384       13.73577        7.49941
C         60.70471       14.96797        7.49967
C         62.13913       14.98035        7.49934
C         62.84411       13.74080        7.49876
C         64.26236       13.76642        7.49842
C         64.95660       14.96860        7.49864
C         15.73680       16.17020        7.50249
C         17.12134       16.18935        7.50201
C         20.04282       16.16065        7.50105
C         21.41661       16.16178        7.50069
C         24.32485       16.15788        7.50012
C         25.69779       16.15753        7.49998
C         28.60675       16.15726        7.49991
C         29.97955       16.15711        7.49996
C         32.88941       16.15721        7.50019
C         34.26227       16.15717        7.50032
C         37.17210       16.15747        7.50057
C         38.54498       16.15751        7.50068
C         41.45487       16.15756        7.50084
C         42.82775       16.15757        7.50088
C         45.73756       16.15738        7.50099
C         47.11042       16.15748        7.50102
C         50.02025       16.15752        7.50107
C         51.39304       16.15774        7.50105
C         54.30197       16.15819        7.50096
C         55.67490       16.15863        7.50083
C         58.58312       16.16274        7.50046
C         59.95691       16.16172        7.50020
C         62.87838       16.19064        7.49958
C         64.26291       16.17160        7.49924
H         15.18186       17.10952        7.50284
H         17.61394       17.16125        7.50201
H         19.54921       17.13145        7.50132
H         21.91096       17.13223        7.50070
H         23.83194       17.12881        7.50029
H         26.19020       17.12852        7.50004
H         28.11406       17.12810        7.50000
H         30.47204       17.12797        7.50009
H         32.39676       17.12804        7.50026
H         34.75467       17.12811        7.50048
H         36.67947       17.12836        7.50066
H         39.03758       17.12842        7.50083
H         40.96223       17.12845        7.50095
H         43.32034       17.12848        7.50104
H         45.24512       17.12830        7.50115
H         47.60301       17.12833        7.50119
H         49.52771       17.12835        7.50130
H         51.88567       17.12861        7.50126
H         53.80950       17.12916        7.50127
H         56.16774       17.12960        7.50105
H         58.08870       17.13315        7.50087
H         60.45045       17.13256        7.50043
H         62.38570       17.16250        7.50003
H         64.81778       17.11097        7.49942
H         15.18222        7.88904        7.50134
H         17.61429        7.83750        7.50053
H         19.54955        7.86745        7.49991
H         21.91129        7.86685        7.49933
H         23.83225        7.87041        7.49903
H         26.19049        7.87085        7.49883
H         28.11433        7.87140        7.49888
H         30.47229        7.87166        7.49901
H         32.39698        7.87168        7.49923
H         34.75488        7.87171        7.49945
H         36.67966        7.87153        7.49961
H         39.03776        7.87156        7.49975
H         40.96242        7.87159        7.49976
H         43.32052        7.87165        7.49977
H         45.24532        7.87189        7.49967
H         47.60322        7.87197        7.49959
H         49.52795        7.87204        7.49941
H         51.88593        7.87191        7.49921
H         53.80980        7.87148        7.49890
H         56.16805        7.87120        7.49852
H         58.08903        7.86778        7.49804
H         60.45079        7.86855        7.49747
H         62.38605        7.83876        7.49688
H         64.81813        7.89048        7.49623
H         13.94880       14.94933        7.50292
H         65.72231       12.50107        6.61291
H         14.27713       12.49939        6.61773
H         14.27777       12.49910        8.38709
H         13.94900       10.04914        7.50211
H         65.72279       12.50045        8.38227
H         66.05100       14.95087        7.49836
H         66.05119       10.05068        7.49664
