     116
     116
C    7.8855121462424522E+00    1.4989769067071927E+01    7.5007053875172236E+00
C    8.5642180179384937E+00    1.3778694670708852E+01    7.5023813044839693E+00
C    9.9832459544615002E+00    1.3758039789339405E+01    7.5014953284244790E+00
C    1.0694210968857414E+01    1.4994419107793028E+01    7.5002032004179204E+00
C    9.9656722074374446E+00    1.6203758964564237E+01    7.4992260880065551E+00
C    8.5824242576596443E+00    1.6204982960256253E+01    7.4992233875097076E+00
C    1.0706430557517830E+01    1.2509234466684436E+01    7.5016586638877625E+00
C    9.9841017938105701E+00    1.1259798816984034E+01    7.5010802690973151E+00
C    8.5651158895970596E+00    1.1237632269894128E+01    7.5016492791053349E+00
C    7.7710465888937144E+00    1.2507819040467366E+01    7.5071696375131562E+00
C    7.8874748709287132E+00    1.0025940795137695E+01    7.4990007963862784E+00
C    8.5854809088356951E+00    8.8113040472641693E+00    7.4969864687612171E+00
C    9.9686592780541581E+00    8.8138963681619789E+00    7.4975891030670816E+00
C    1.0695896729306410E+01    1.0024094772766281E+01    7.4994617911913943E+00
H    1.0497609411841196E+01    1.7162921158796646E+01    7.4983617470856423E+00
H    8.0326638502714935E+00    1.7155929968444404E+01    7.4982215354973114E+00
H    8.0366825892140668E+00    7.8597822407233746E+00    7.4950795411495967E+00
H    1.0501544254333128E+01    7.8552627119842269E+00    7.4963145223228640E+00
H    6.7848266137804725E+00    1.4984250141872636E+01    7.5010454142872263E+00
H    6.7867911872210156E+00    1.0030313695353062E+01    7.4989063616480829E+00
H    7.0850473964194274E+00    1.2507803565647889E+01    6.6317920451174208E+00
H    7.0989615445923810E+00    1.2507300347221605E+01    8.3934552905790731E+00
C    1.2140132792624579E+01    1.4982638928335440E+01    7.5000492269016750E+00
C    1.2842610718607101E+01    1.3751841802504320E+01    7.5003805195552005E+00
C    1.4275911171028994E+01    1.3748351844321302E+01    7.5001941898822144E+00
C    1.4990579681242831E+01    1.4976805793204219E+01    7.4999763484683930E+00
C    1.4255062241912961E+01    1.6185155541736940E+01    7.4998326939447004E+00
C    1.2882547806624965E+01    1.6186663425394162E+01    7.4997798126038910E+00
C    1.4996723944068400E+01    1.2511050836635398E+01    7.5001540874271804E+00
C    1.4276183211164819E+01    1.1273486962799858E+01    7.5001759443537477E+00
C    1.2843086146611409E+01    1.1268789961789004E+01    7.5002691609199417E+00
C    1.2115827374206496E+01    1.2510023480884241E+01    7.5007660405789585E+00
C    1.2141562089742251E+01    1.0037412276139280E+01    7.4997208472701375E+00
C    1.2884359091905203E+01    8.8337928544288129E+00    7.4995637769375136E+00
C    1.4256617406382935E+01    8.8363798179711370E+00    7.4997489113571927E+00
C    1.4990897791456151E+01    1.0045370942090045E+01    7.4999131103526286E+00
H    1.4782827707320024E+01    1.7146659049510799E+01    7.4997537765802376E+00
H    1.2357793398994872E+01    1.7149870729671797E+01    7.4996614858794768E+00
H    1.2360279352979946E+01    7.8702530764026015E+00    7.4994584281617618E+00
H    1.4785096513336232E+01    7.8753443790347859E+00    7.4996982242955594E+00
C    1.6430223787176871E+01    1.4976012890074506E+01    7.4999991799034609E+00
C    1.7139103931667723E+01    1.3746995455320191E+01    7.5000077925691100E+00
C    1.8572597905241661E+01    1.3746681246330931E+01    7.5000490679507239E+00
C    1.9284200896540849E+01    1.4975492870694287E+01    7.5000292356510370E+00
C    1.8543870812208688E+01    1.6182738332168558E+01    7.5000167340984865E+00
C    1.7171605900614757E+01    1.6182843102359076E+01    7.4999695893213749E+00
C    1.9292754620288658E+01    1.2510894339919847E+01    7.5000290282374733E+00
C    1.8571960415544499E+01    1.1275537940790166E+01    7.5000808833666515E+00
C    1.7138794581109074E+01    1.1275659252906390E+01    7.4999867147022670E+00
C    1.6416492815117948E+01    1.2511309259854649E+01    7.5001335458824219E+00
C    1.6430016685725441E+01    1.0046730566203989E+01    7.5000419700580405E+00
C    1.7170356931249842E+01    8.8395598228129302E+00    7.4999800011499183E+00
C    1.8542244570755379E+01    8.8391184997720753E+00    7.5000558980873038E+00
C    1.9282388481960059E+01    1.0046273445151334E+01    7.5000210344789799E+00
H    1.9069824337999215E+01    1.7145375049169257E+01    7.5000416951641125E+00
H    1.6646410391579622E+01    1.7145820497596340E+01    7.4999542030026722E+00
H    1.6644743001764787E+01    7.8769019161254752E+00    7.5000071226597811E+00
H    1.9067927842775202E+01    7.8764291570309517E+00    7.5000662472381698E+00
C    2.0723427899082925E+01    1.4974902545214817E+01    7.5000447215470079E+00
C    2.1433985654901420E+01    1.3745480261770300E+01    7.5000691174996952E+00
C    2.2867458021569380E+01    1.3744584763175155E+01    7.5000044732933864E+00
C    2.3577311213131690E+01    1.4973027618943503E+01    7.5000743823226150E+00
C    2.2836919880780986E+01    1.6180448686501169E+01    7.5000845897541097E+00
C    2.1464675437370030E+01    1.6181598490040003E+01    7.5000694354873865E+00
C    2.3589038437152489E+01    1.2508296841672928E+01    7.4999880338039366E+00
C    2.2865665104836260E+01    1.1273235400814889E+01    7.4999709074874916E+00
C    2.1432496940294044E+01    1.1274370807047998E+01    7.5000648668082777E+00
C    2.0712740461786812E+01    1.2510329954431237E+01    7.5000293274901058E+00
C    2.0721047605427216E+01    1.0045689080723550E+01    7.5000485660490472E+00
C    2.1460094560208660E+01    8.8378885352328442E+00    7.5000662407259817E+00
C    2.2831996849054484E+01    8.8370479568000135E+00    7.5000465935701328E+00
C    2.3573326329148369E+01    1.0043644658648162E+01    7.5000573164027058E+00
H    2.3362962905385473E+01    1.7142964237600264E+01    7.5000880877683551E+00
H    2.0939553535430914E+01    1.7144691419498074E+01    7.5000433986831192E+00
H    2.0933457317152527E+01    7.8757181300882859E+00    7.5000600533380988E+00
H    2.3356729988211878E+01    7.8739022670800933E+00    7.5000648547075484E+00
C    2.5016940947913277E+01    1.4972707969420268E+01    7.5000616929359083E+00
C    2.5730585658308964E+01    1.3743678783024599E+01    7.4998224459709260E+00
C    2.7163875066068030E+01    1.3746049856052091E+01    7.4996668304556700E+00
C    2.7867335757088544E+01    1.4976280798335956E+01    7.4999116806340496E+00
C    2.7125971559005997E+01    1.6180941267987706E+01    7.5002613624509884E+00
C    2.5753465891073205E+01    1.6180474115798642E+01    7.5002075393334273E+00
C    2.7889506514761980E+01    1.2503591431927459E+01    7.4991470232647064E+00
C    2.7161311653702782E+01    1.1262887017460610E+01    7.4997261781279079E+00
C    2.5728237898217781E+01    1.1268705367836002E+01    7.4998352354047357E+00
C    2.5008770202337459E+01    1.2506916743390388E+01    7.4998199835060140E+00
C    2.5012494569733732E+01    1.0041140074356349E+01    7.5000079942399394E+00
C    2.5745971392552594E+01    8.8316283820010941E+00    7.5001731690295230E+00
C    2.7118240383745579E+01    8.8279909669205185E+00    7.5003483096960384E+00
C    2.7861906203509118E+01    1.0031014888205258E+01    7.5001839726279869E+00
H    2.7651519178913539E+01    1.7143718617812866E+01    7.5003731887675800E+00
H    2.5226495079155136E+01    1.7142424246330094E+01    7.5003167618523534E+00
H    2.5216949473610775E+01    7.8708840371282092E+00    7.5001592179771936E+00
H    2.7641826420073905E+01    7.8641979024681019E+00    7.5004335911289353E+00
C    2.9313284152117365E+01    1.4986867330063959E+01    7.4998719450368521E+00
C    3.0023142325207001E+01    1.3749890242039584E+01    7.4984325011726130E+00
C    3.1442175943135386E+01    1.3769297929861589E+01    7.4977110798530742E+00
C    3.2121976887817127E+01    1.4979708391658159E+01    7.4993073324300799E+00
C    3.1426190381250056E+01    1.6195561033001905E+01    7.5008350139439699E+00
C    3.0042909131305450E+01    1.6195570424979358E+01    7.5007730219653759E+00
C    3.2234359612235707E+01    1.2497852066327066E+01    7.4928650517456132E+00
C    3.1439252923973953E+01    1.1228376426535085E+01    7.4983988481939061E+00
C    3.0020302583738189E+01    1.1251736703467978E+01    7.4988365798936929E+00
C    2.9298869719764308E+01    1.2501737216024527E+01    7.4984240214850431E+00
C    2.9307576007032448E+01    1.0016612916001908E+01    7.5005136075255603E+00
C    3.0033801681644952E+01    8.8058284926168024E+00    7.5022799483828893E+00
C    3.1416988711699638E+01    8.8020413891612410E+00    7.5029612903206511E+00
C    3.2115903578704604E+01    1.0016114911299098E+01    7.5009889347934706E+00
H    3.1976866498354788E+01    1.7145962451009353E+01    7.5018322166920051E+00
H    2.9511838624782659E+01    1.7155208585181871E+01    7.5016599214568478E+00
H    2.9500129371713893E+01    7.8476498766579068E+00    7.5035125132533009E+00
H    3.1964983208162788E+01    7.8500608162110961E+00    7.5048372565525208E+00
H    3.3222657614974587E+01    1.4973068227975711E+01    7.4990061015165770E+00
H    3.3216596385829696E+01    1.0019688400045524E+01    7.5011443084917380E+00
H    3.2920322529811266E+01    1.2497209408374152E+01    8.3682779364761402E+00
H    3.2906466534264517E+01    1.2496720758640365E+01    6.6065915032565181E+00
