224

C         -0.09673        7.90769        5.00185
C          0.58522        6.70655        5.00142
C          1.97294        6.69449        5.00096
C          2.72642        7.90118        5.00091
C          4.14944        7.91035        5.00047
C          4.88979        6.71741        5.00006
C          6.26732        6.72059        4.99973
C          7.00649        7.91799        4.99977
C          8.43082        7.91926        4.99953
C          9.17185        6.72411        4.99925
C         10.54918        6.72449        4.99913
C         11.28920        7.92004        4.99929
C         12.71357        7.92007        4.99928
C         13.45409        6.72460        4.99914
C         14.83157        6.72462        4.99922
C         15.57194        7.92009        4.99943
C         16.99630        7.92009        4.99955
C         17.73676        6.72462        4.99949
C         19.11426        6.72464        4.99962
C         19.85467        7.92013        4.99982
C         21.27903        7.92016        4.99994
C         22.01948        6.72469        4.99986
C         23.39699        6.72471        4.99994
C         24.13740        7.92021        5.00010
C         25.56176        7.92023        5.00014
C         26.30222        6.72476        5.00001
C         27.67973        6.72479        5.00001
C         28.42013        7.92028        5.00017
C         29.84450        7.92031        5.00014
C         30.58496        6.72486        4.99994
C         31.96248        6.72489        4.99988
C         32.70288        7.92040        5.00006
C         34.12725        7.92046        4.99998
C         34.86769        6.72503        4.99969
C         36.24518        6.72508        4.99957
C         36.98564        7.92060        4.99976
C         38.41001        7.92066        4.99959
C         39.15012        6.72515        4.99919
C         40.52746        6.72486        4.99897
C         41.26841        7.92006        4.99915
C         42.69275        7.91890        4.99886
C         43.43200        6.72155        4.99834
C         44.80954        6.71848        4.99801
C         45.54981        7.91147        4.99819
C         46.97283        7.90242        4.99781
C         47.72640        6.69578        4.99720
C         49.11413        6.70795        4.99683
C         49.79598        7.90914        4.99705
C         -0.21555       10.36611        5.00230
C          0.60247        9.11713        5.00181
C          2.02089        9.13502        5.00134
C          2.72621       10.36623        5.00130
C          4.14867       10.36629        5.00087
C          4.86141        9.14219        5.00047
C          6.29218        9.14416        5.00012
C          7.00513       10.36640        5.00015
C          8.43020       10.36645        4.99990
C          9.14394        9.14573        4.99963
C         10.57524        9.14593        4.99950
C         11.28862       10.36654        4.99963
C         12.71357       10.36659        4.99960
C         13.42710        9.14604        4.99946
C         14.85825        9.14606        4.99953
C         15.57163       10.36667        4.99972
C         16.99646       10.36670        4.99983
C         17.70990        9.14610        4.99976
C         19.14102        9.14612        4.99989
C         19.85439       10.36676        5.00009
C         21.27921       10.36679        5.00020
C         21.99263        9.14618        5.00012
C         23.42375        9.14620        5.00021
C         24.13712       10.36684        5.00039
C         25.56194       10.36686        5.00045
C         26.27537        9.14625        5.00031
C         27.70648        9.14627        5.00033
C         28.41985       10.36691        5.00051
C         29.84468       10.36694        5.00052
C         30.55810        9.14633        5.00033
C         31.98922        9.14637        5.00030
C         32.70260       10.36700        5.00049
C         34.12744       10.36704        5.00046
C         34.84088        9.14647        5.00018
C         36.27204        9.14652        5.00009
C         36.98549       10.36711        5.00031
C         38.41045       10.36716        5.00018
C         39.12390        9.14660        4.99980
C         40.55520        9.14648        4.99960
C         41.26887       10.36725        4.99982
C         42.69394       10.36730        4.99957
C         43.40697        9.14513        4.99907
C         44.83774        9.14326        4.99875
C         45.55039       10.36741        4.99897
C         46.97285       10.36747        4.99863
C         47.67827        9.13631        4.99804
C         49.09669        9.11853        4.99766
C         49.91461       10.36758        4.99787
C         -0.09691       12.82455        5.00265
C          0.60237       11.61516        5.00221
C          2.02079       11.59739        5.00173
C          2.72624       12.83128        5.00168
C          4.14926       12.82223        5.00123
C          4.86132       11.59043        5.00084
C          6.29209       11.58857        5.00048
C          7.00632       12.81480        5.00048
C          8.43066       12.81363        5.00021
C          9.14386       11.58722        4.99996
C         10.57516       11.58710        4.99982
C         11.28905       12.81304        4.99992
C         12.71342       12.81310        4.99988
C         13.42703       11.58718        4.99976
C         14.85818       11.58723        4.99981
C         15.57181       12.81324        4.99999
C         16.99618       12.81330        5.00010
C         17.70984       11.58733        5.00003
C         19.14096       11.58737        5.00016
C         19.85456       12.81339        5.00036
C         21.27893       12.81342        5.00049
C         21.99258       11.58743        5.00040
C         23.42370       11.58745        5.00050
C         24.13730       12.81347        5.00069
C         25.56167       12.81350        5.00076
C         26.27532       11.58750        5.00063
C         27.70643       11.58753        5.00067
C         28.42003       12.81355        5.00087
C         29.84440       12.81357        5.00090
C         30.55805       11.58758        5.00072
C         31.98916       11.58760        5.00072
C         32.70276       12.81361        5.00094
C         34.12713       12.81361        5.00094
C         34.84082       11.58764        5.00068
C         36.27197       11.58766        5.00063
C         36.98550       12.81363        5.00088
C         38.40986       12.81366        5.00080
C         39.12382       11.58776        5.00042
C         40.55512       11.58797        5.00026
C         41.26824       12.81444        5.00052
C         42.69258       12.81571        5.00032
C         43.40688       11.58953        4.99981
C         44.83766       11.59150        4.99953
C         45.54963       12.82335        4.99977
C         46.97264       12.83251        4.99946
C         47.67818       11.59868        4.99887
C         49.09660       11.61656        4.99852
C         49.79579       12.82601        4.99876
C          0.58493       14.02574        5.00261
C          1.97266       14.03791        5.00213
C          4.88952       14.01521        5.00117
C          6.26706       14.01214        5.00080
C          9.17161       14.00884        5.00024
C         10.54894       14.00855        5.00009
C         13.45388       14.00862        5.00002
C         14.83137       14.00867        5.00007
C         17.73659       14.00881        5.00031
C         19.11410       14.00885        5.00043
C         22.01934       14.00891        5.00069
C         23.39685       14.00894        5.00079
C         26.30207       14.00899        5.00095
C         27.67958       14.00901        5.00101
C         30.58480       14.00906        5.00111
C         31.96231       14.00908        5.00114
C         34.86750       14.00909        5.00119
C         36.24498       14.00910        5.00117
C         39.14989       14.00921        5.00107
C         40.52722       14.00959        5.00095
C         43.43174       14.01311        5.00057
C         44.80928       14.01628        5.00032
C         47.72612       14.03921        4.99969
C         49.11385       14.02714        4.99934
H          0.03377       14.95789        5.00295
H          2.41056       15.01913        5.00214
H          4.44300       14.99285        5.00142
H          6.71058       14.99055        5.00083
H          8.72972       14.98803        5.00040
H         10.99168       14.98741        5.00016
H         13.01136       14.98758        5.00012
H         15.27399       14.98761        5.00020
H         17.29393       14.98772        5.00038
H         19.55672       14.98778        5.00059
H         21.57668       14.98782        5.00078
H         23.83947       14.98787        5.00094
H         25.85942       14.98790        5.00107
H         28.12220       14.98794        5.00115
H         30.14215       14.98797        5.00126
H         32.40491       14.98801        5.00130
H         34.42484       14.98800        5.00141
H         36.68743       14.98809        5.00137
H         38.70709       14.98805        5.00138
H         40.96903       14.98882        5.00117
H         42.98815       14.99148        5.00097
H         45.25572       14.99396        5.00055
H         47.28815       15.02039        5.00013
H         49.66494       14.95933        4.99953
H          0.03413        5.77436        5.00146
H          2.41091        5.71330        5.00066
H          4.44335        5.73974        5.00002
H          6.71091        5.74222        4.99946
H          8.73003        5.74488        4.99914
H         10.99197        5.74565        4.99895
H         13.01163        5.74561        4.99900
H         15.27423        5.74570        4.99912
H         17.29415        5.74569        4.99935
H         19.55692        5.74573        4.99956
H         21.57687        5.74576        4.99973
H         23.83965        5.74580        4.99986
H         25.85960        5.74583        4.99988
H         28.12239        5.74588        4.99989
H         30.14235        5.74592        4.99978
H         32.40513        5.74598        4.99971
H         34.42508        5.74609        4.99952
H         36.68770        5.74612        4.99933
H         38.70738        5.74628        4.99901
H         40.96934        5.74567        4.99865
H         42.98848        5.74315        4.99814
H         45.25606        5.74084        4.99760
H         47.28850        5.71456        4.99698
H         49.66529        5.77581        4.99635
H         -1.18066       12.83500        5.00303
H         50.56095       10.36792        4.09251
H         -0.86244       10.36624        4.09734
H         -0.86180       10.36594        5.90772
H         -1.18047        7.89716        5.00222
H         50.56143       10.36729        5.90289
H         50.87954       12.83654        4.99848
H         50.87973        7.89870        4.99675
